*Heading
Cantilever beam with tip loading - hex8
*INCLUDE, INPUT=beam.msh
*BOUNDARY
fixed,1,3
*MATERIAL,NAME=EL
*ELASTIC
210000.,.3
*DENSITY
7.8E-9
*SOLID SECTION,ELSET=Volume1,MATERIAL=EL
*STEP
*STATIC
*CLOAD
tip,3,1.
*NODE PRINT,NSET=tip
U,RF
*EL PRINT,ELSET=EALL
S
*NODE FILE
U, RF
*EL FILE
E, S
*END STEP

