*INCLUDE, INPUT=Al_Vol0.5Mesh.inp
*INCLUDE, INPUT=periodic.equ
*BOUNDARY
n0,1,3
*MATERIAL,NAME=AL
*ELASTIC
68900.0,0.32
*DENSITY
0.0027
*MATERIAL,NAME=HTPB
*HYPERELASTIC,MOONEY-RIVLIN
0.09966,0.10077,0.11338
*SOLID SECTION,ELSET=Surrounding,MATERIAL=HTPB
*SOLID SECTION,ELSET=MicroStructures,MATERIAL=AL
*STEP,NLGEOM,INC=100,HOMOGENIZATION
*STATIC
1.e-4,1.0,1.e-6,1.e-1
*BOUNDARY
nx,1,1,0.021
nx,2,3
ny,3,3
**NODE PRINT,NSET=NALL
**U,RF
**EL PRINT,ELSET=EALL
**S
*NODE FILE
U, RF
*EL FILE
E, S
*END STEP
